*Heading
** Job name: 35 Model name: Model-1
** Generated by: Abaqus/CAE 2019
*Preprint, echo=NO, model=NO, history=NO, contact=NO
**
** PARTS
**
*Part, name=Stent_35-51
*Node
      1, 0.0469185673,   1.74685133,  0.104930587
      2,   -1.0142796,   1.65501857,   0.56869477
      3,   -1.0142796,   1.54153156,  0.529698551
      4, 0.0469185673,   1.62706721, 0.0977353454
      5,  -1.03498828,   1.64466822,  0.597968698
      6,  -1.03498828,   1.53189099,  0.556965172
      7,  -1.01231563,   1.63351071,  0.627807856
      8,  -1.01231563,   1.52149856,  0.584758162
      9, 0.0404658355,   1.45114636,    0.9780972
     10, 0.0404658355,   1.35163927,   0.91102767
     11,  0.087177977,   1.34135246,   1.12395442
     12,  0.087177977,   1.24937403,   1.04688323
     13, 0.0404658355,   1.21696067,   1.25757968
     14, 0.0404658355,    1.1335119,   1.17134571
     15,  -1.01231563,  0.903991818,   1.49843216
     16,  -1.01231563,  0.842003822,   1.39568245
     17,   -1.0142796,  0.847973347,   1.53083026
     18,   -1.0142796,  0.789826632,   1.42585897
     19, 0.0469185673,  0.407260329,    1.7019515
     20, 0.0469185673,  0.379333913,   1.58524632
** ... 2424 like lines cut
*Element, type=C3D10
   1,  441,  380,  383,  386,  502,  501,  500,  504,  503,  505
   2,  441,  382,  381,  386,  508,  507,  506,  504,  509,  510
   3,  441,  384,  383,  379,  512,  511,  500,  514,  513,  515
   4,  441,  382,  386,  385,  508,  509,  504,  517,  516,  518
   5,  441,  385,  384,  382,  517,  519,  512,  508,  516,  520
   6,  442,  410,   18,  244,  523,  522,  521,  525,  524,  526
   7,  442,  244,   17,  243,  525,  528,  527,  530,  529,  531
   8,  442,  410,  243,  409,  523,  532,  530,  534,  533,  535
   9,   18,   17,  184,  442,  538,  537,  536,  521,  527,  539
  10,   57,  126,   58,  443,  542,  541,  540,  544,  543,  545
  11,  443,  126,   58,  292,  543,  541,  545,  547,  546,  548
  12,  443,  291,  292,   58,  550,  549,  547,  545,  551,  548
  13,  444,  337,  101,  338,  554,  553,  552,  556,  555,  557
  14,  444,  102,   68,  338,  560,  559,  558,  556,  561,  562
  15,  444,  338,  302,  301,  556,  564,  563,  566,  565,  567
  16,  444,   67,  302,   68,  569,  568,  563,  558,  570,  571
  17,   80,  326,   89,  445,  574,  573,  572,  576,  575,  577
  18,  445,  326,  314,   80,  575,  579,  578,  576,  574,  580
  19,   80,  445,  313,  314,  576,  582,  581,  580,  578,  583
  20,  325,  326,  314,  445,  585,  579,  584,  586,  575,  578
** ... 986 like lines cut
*Nset, nset=Set-3, generate
    1,  2444,     1
*Elset, elset=Set-3, generate
    1,  1006,     1
*Nset, nset=Set-5, generate
    1,  2444,     1
*Elset, elset=Set-5, generate
    1,  1006,     1
*Nset, nset=Set-6, generate
    1,  2444,     1
*Elset, elset=Set-6, generate
    1,  1006,     1
** Section: Section-1
*Solid Section, elset=Set-6, material=Material-1
,
*End Part
**  
**
** ASSEMBLY
**
*Assembly, name=Assembly
**  
*Instance, name=Stent_35-51-1, part=Stent_35-51
*End Instance
**  
*Nset, nset=Set-1, instance=Stent_35-51-1
 226,
*Nset, nset=Set-2, instance=Stent_35-51-1
 149, 196, 226
*Nset, nset=Set-3, instance=Stent_35-51-1
 219, 221
*Nset, nset=Set-4, instance=Stent_35-51-1
 179, 181
*Elset, elset=_Surf-1_S3, internal, instance=Stent_35-51-1
   2,   4,   6,  11,  14,  15,  18,  24,  35,  68,  70,  75,  86,  92, 107, 117
 126, 127, 133, 156, 157, 175, 181, 184, 192, 203, 214, 219, 262, 274, 279, 280
 283, 287, 296, 307, 321, 331, 340, 378, 398, 410, 417, 426, 430, 455, 460, 463
 466, 471, 472, 480, 489, 494, 508, 518, 533, 540, 551, 615, 622, 641, 662, 665
 671, 674, 680, 704, 721, 731, 770, 776, 806, 824, 837, 885, 887, 888, 889, 900
 904, 920, 954, 963, 971
*Elset, elset=_Surf-1_S2, internal, instance=Stent_35-51-1
   39,   63,   78,   80,   91,   97,  106,  138,  244,  269,  299,  316,  355,  400,  448,  515
  522,  613,  623,  707,  711,  713,  718,  725,  801,  813,  823,  864,  908,  942,  968,  998
 1000,
*Elset, elset=_Surf-1_S1, internal, instance=Stent_35-51-1
  40, 102, 123, 139, 141, 151, 196, 198, 342, 377, 399, 431, 447, 479, 507, 559
 563, 564, 568, 575, 591, 601, 611, 617, 640, 646, 657, 683, 688, 690, 697, 700
 705, 715, 732, 748, 750, 755, 760, 765, 800, 809, 817, 825, 829, 836, 842, 846
 856, 859, 865, 872, 916, 922, 927, 936, 965, 981, 989
*Elset, elset=_Surf-1_S4, internal, instance=Stent_35-51-1
  62,  82, 114, 153, 164, 166, 187, 197, 222, 227, 237, 304, 317, 322, 324, 354
 356, 372, 401, 403, 428, 442, 536, 550, 605, 614, 625, 722, 723, 729, 733, 822
 858, 866, 870, 902, 903, 913, 933, 945, 946, 986, 999
*Surface, type=ELEMENT, name=Surf-1
_Surf-1_S3, S3
_Surf-1_S2, S2
_Surf-1_S4, S4
_Surf-1_S1, S1
*End Assembly
** 
** MATERIALS
** 
*Material, name=Material-1
*Elastic
 9.8e+10, 0.33
** ----------------------------------------------------------------
** 
** STEP: Step-1
** 
*Step, name=Step-1, nlgeom=NO
*Static
1., 1., 1e-05, 1.
** 
** BOUNDARY CONDITIONS
** 
** Name: BC-1 Type: Displacement/Rotation
*Boundary
Set-2, 1, 1
** Name: BC-2 Type: Displacement/Rotation
*Boundary
Set-3, 2, 2
** Name: BC-3 Type: Displacement/Rotation
*Boundary
Set-4, 3, 3
** 
** LOADS
** 
** Name: Load-1   Type: Pressure
*Dsload
Surf-1, P, 15998.6
** 
** OUTPUT REQUESTS
** 
*Restart, write, frequency=0
** 
** FIELD OUTPUT: F-Output-1
** 
*Output, field, variable=PRESELECT
** 
** HISTORY OUTPUT: H-Output-1
** 
*Output, history, variable=PRESELECT
*End Step
