*Heading
** Job name: 35mm_new2 Model name: Model-2
** Generated by: Abaqus/CAE 2019
*Preprint, echo=NO, model=NO, history=NO, contact=NO
**
** PARTS
**
*Part, name=Stent_23-51
*Node
      1,  -1.02759242,   1.11362171,  0.286961228
      2, 0.00839767884,   1.14949811, 0.0339726806
      3, 0.00839767884,   1.02955043, 0.0304277055
      4,  -1.02759242,  0.997417688,  0.257017463
      5,  -1.11499047,   1.08105767,  0.392191082
      6,  -1.11499548,  0.967809618,  0.352483392
      7,  -1.11499548,   1.08056414,  0.393549442
      8,  -1.01975811,  0.929008961,  0.444794744
      9,  -1.01975811,   1.03724301,  0.496615499
     10, 0.00601332262,  0.947774112,  0.651324928
     11, 0.00601332262,   0.84887594,  0.583360612
     12,           0.,  0.906717718,  0.707363427
     13,           0.,  0.812103689,  0.633551598
     14,  -1.25125527,  0.906717718,  0.707363427
     15,  -1.25125527,  0.812103689,  0.633551598
     16,  -1.30753708,  0.923895359,  0.684775412
     17,  -1.30753708,  0.827488899,  0.613320589
     18,  -1.30799997,  0.827820301,  0.612873197
     19,  -1.30799997,  0.924265385,  0.684275866
     20,  -1.30799997,  0.835702479,  0.790000856
** ... 2408 like lines cut
*Element, type=C3D10
  1,  445,  350,  349,  319,  500,  499,  498,  502,  501,  503
  2,  445,  350,  137,  349,  500,  505,  504,  498,  499,  506
  3,  445,  350,  324,  323,  500,  508,  507,  510,  509,  511
  4,  445,  322,  323,  321,  513,  512,  510,  515,  514,  516
  5,  446,  391,  270,  392,  519,  518,  517,  521,  520,  522
  6,  446,  391,  390,  169,  519,  524,  523,  526,  525,  527
  7,  446,  170,   56,  270,  530,  529,  528,  517,  531,  532
  8,  446,  169,  269,   55,  526,  534,  533,  536,  535,  537
  9,  447,   46,  178,  261,  540,  539,  538,  542,  541,  543
 10,  447,  177,   46,   47,  545,  544,  540,  547,  546,  548
 11,  447,  261,  262,   47,  542,  550,  549,  547,  551,  552
 12,  386,  387,  279,  385,  555,  554,  553,  557,  556,  558
 13,  448,  387,  280,  388,  561,  560,  559,  563,  562,  564
 14,  448,  446,  169,  170,  566,  526,  565,  567,  530,  568
 15,  448,  169,   69,  279,  565,  570,  569,  572,  571,  573
 16,  448,  170,  169,  388,  567,  568,  565,  563,  574,  575
 17,  449,  138,  112,  318,  578,  577,  576,  580,  579,  581
 18,  137,  138,  112,  449,  583,  577,  582,  584,  578,  576
 19,  449,  318,  352,  138,  580,  586,  585,  578,  579,  587
 20,  138,  449,  351,  352,  578,  589,  588,  587,  585,  590
** ... 970 like lines cut
*Nset, nset=Set-1, generate
    1,  2428,     1
*Elset, elset=Set-1, generate
   1,  990,    1
*Nset, nset=Set-7, generate
    1,  2428,     1
*Elset, elset=Set-7, generate
   1,  990,    1
*Nset, nset=Set-8, generate
    1,  2428,     1
*Elset, elset=Set-8, generate
   1,  990,    1
** Section: Section-1
*Solid Section, elset=Set-8, material=Material-1
,
*End Part
**  
**
** ASSEMBLY
**
*Assembly, name=Assembly
**  
*Instance, name=Stent_23-51-1, part=Stent_23-51
*End Instance
**  
*Elset, elset=_Surf-1_S3, internal, instance=Stent_23-51-1
   3,   5,   7,  13,  17,  19,  24,  25,  28,  32,  33,  38,  46,  47,  54,  55
  63,  67,  75,  78,  80,  87,  88,  90,  95,  98, 105, 114, 116, 122, 123, 127
 131, 135, 140, 142, 160, 169, 176, 180, 194, 196, 198, 202, 206, 208, 228, 232
 242, 257, 265, 268, 289, 290, 308, 335, 336, 366, 406, 409, 414, 419, 431, 440
 462, 463, 471, 479, 485, 499, 507, 508, 531, 535, 557, 561, 579, 583, 585, 586
 591, 616, 617, 633, 656, 658, 686, 731, 764, 776, 778, 805, 809, 820, 827, 856
 866, 872, 894, 909, 919, 922, 947, 948, 979
*Elset, elset=_Surf-1_S1, internal, instance=Stent_23-51-1
  57, 129, 150, 172, 188, 212, 227, 236, 246, 277, 314, 340, 360, 380, 422, 441
 503, 521, 528, 548, 565, 574, 638, 650, 676, 693, 699, 700, 720, 726, 740, 783
 785, 786, 801, 834, 854, 862, 902, 937, 956, 973
*Elset, elset=_Surf-1_S2, internal, instance=Stent_23-51-1
  72, 107, 109, 115, 157, 239, 285, 344, 369, 374, 413, 424, 450, 597, 612, 649
 660, 691, 703, 704, 730, 742, 759, 774, 793, 823, 824, 863, 879, 888, 897, 910
 939, 963, 965
*Elset, elset=_Surf-1_S4, internal, instance=Stent_23-51-1
 103, 111, 248, 256, 283, 306, 318, 320, 352, 370, 404, 417, 445, 464, 487, 504
 509, 515, 525, 529, 530, 532, 537, 576, 599, 643, 663, 674, 760, 767, 784, 832
 871, 893, 941, 957
*Surface, type=ELEMENT, name=Surf-1
_Surf-1_S3, S3
_Surf-1_S1, S1
_Surf-1_S2, S2
_Surf-1_S4, S4
*Elset, elset=_Surf-2_S3, internal, instance=Stent_23-51-1
   3,   5,   7,  13,  17,  19,  24,  25,  28,  32,  33,  38,  46,  47,  54,  55
  63,  67,  75,  78,  80,  87,  88,  90,  95,  98, 105, 114, 116, 122, 123, 127
 131, 135, 140, 142, 160, 169, 176, 180, 194, 196, 198, 202, 206, 208, 228, 232
 242, 257, 265, 268, 289, 290, 308, 335, 336, 366, 406, 409, 414, 419, 431, 440
 462, 463, 471, 479, 485, 499, 507, 508, 531, 535, 557, 561, 579, 583, 585, 586
 591, 616, 617, 633, 656, 658, 686, 731, 764, 776, 778, 805, 809, 820, 827, 856
 866, 872, 894, 909, 919, 922, 947, 948, 979
*Elset, elset=_Surf-2_S1, internal, instance=Stent_23-51-1
  57, 129, 150, 172, 188, 212, 227, 236, 246, 277, 314, 340, 360, 380, 422, 441
 503, 521, 528, 548, 565, 574, 638, 650, 676, 693, 699, 700, 720, 726, 740, 783
 785, 786, 801, 834, 854, 862, 902, 937, 956, 973
*Elset, elset=_Surf-2_S2, internal, instance=Stent_23-51-1
  72, 107, 109, 115, 157, 239, 285, 344, 369, 374, 413, 424, 450, 597, 612, 649
 660, 691, 703, 704, 730, 742, 759, 774, 793, 823, 824, 863, 879, 888, 897, 910
 939, 963, 965
*Elset, elset=_Surf-2_S4, internal, instance=Stent_23-51-1
 103, 111, 248, 256, 283, 306, 318, 320, 352, 370, 404, 417, 445, 464, 487, 504
 509, 515, 525, 529, 530, 532, 537, 576, 599, 643, 663, 674, 760, 767, 784, 832
 871, 893, 941, 957
*Surface, type=ELEMENT, name=Surf-2
_Surf-2_S3, S3
_Surf-2_S1, S1
_Surf-2_S2, S2
_Surf-2_S4, S4
*End Assembly
** 
** MATERIALS
** 
*Material, name=Material-1
*Elastic
 2e+11, 0.3
** ----------------------------------------------------------------
** 
** STEP: Step-1
** 
*Step, name=Step-1, nlgeom=NO
*Static
1., 1., 1e-05, 1.
** 
** LOADS
** 
** Name: Load-1   Type: Pressure
*Dsload
Surf-2, P, 10.
** 
** OUTPUT REQUESTS
** 
*Restart, write, frequency=0
** 
** FIELD OUTPUT: F-Output-1
** 
*Output, field, variable=PRESELECT
** 
** HISTORY OUTPUT: H-Output-1
** 
*Output, history, variable=PRESELECT
*End Step
